LTspice 24.0.12 for Windows
Circuit: * C:\users\david\My Documents\LTspice\PCB_filter\Differential.asc
Start Time: Thu Oct 23 17:51:00 2025
solver = Normal
Maximum thread count: 8
tnom = 27
temp = 27
method = modified trap
Direct Newton iteration failed to find .op point.  (Use ".option noopiter" to skip.)
Starting Gmin stepping
Gmin = 10
Gmin = 1.07374
Gmin = 0.115292
Gmin = 0.0123794
Gmin = 0.00132923
Gmin = 0.000142725
vernier = 0.5
vernier = 0.25
vernier = 0.125
vernier = 0.0625
Gmin = 0.000151412
vernier = 0.03125
vernier = 0.015625
vernier = 0.0208333
Gmin = 0.000147719
vernier = 0.0277778
Gmin = 0.000139037
vernier = 0.037037
vernier = 0.0493827
Gmin = 0.000125928
vernier = 0.0658435
vernier = 0.0877914
Gmin = 0.000107687
vernier = 0.117055
Gmin = 8.36344e-05
vernier = 0.156073
vernier = 0.208098
Gmin = 5.54679e-05
vernier = 0.277464
vernier = 0.369952
Gmin = 2.91601e-05
vernier = 0.493269
Gmin = 1.0476e-05
vernier = 0.657691
vernier = 0.876922
Gmin = 2.06429e-06
vernier = 1
Gmin = 2.38859e-07
vernier = 0.5
vernier = 0.25
vernier = 0.125
vernier = 0.0625
vernier = 0.03125
Gmin = 9.78368e-08
vernier = 0.015625
vernier = 0.0078125
vernier = 0.00390625
vernier = 0.00195312
vernier = 0.000976562
vernier = 0.000488281
Gmin = 0
Gmin stepping failed

Starting source stepping with srcstepmethod=0
Source Step = 3.0303%
Source Step = 33.3333%
Source Step = 63.6364%
Source Step = 88.6364%
vernier = 0.0625
Source Step = 87.8995%
Starting source stepping with srcstepmethod=1
Source Step = 3.0303%
Source Step = 33.3333%
Source Step = 63.6364%
Source Step = 88.6364%
vernier = 0.0625
Source stepping failed

Pseudo Transient succeeded in finding the operating point at 2.16017 s.
Total elapsed time: 1.768 seconds.

