LTspice 24.0.12 for Windows
Circuit: * Z:\home\david\Documents\LTspice\PCB_filter\Draft1.asc
Start Time: Tue Oct 14 16:51:24 2025
solver = Normal
Maximum thread count: 8
tnom = 27
temp = 27
method = modified trap
abstol = 1e-06
reltol = 0.01
volttol = 1e-06
No AC stimulus found:
     Set the value of a current or voltage source to "AC 1."
     to make it behave as a signal generator for AC analysis.
Direct Newton iteration failed to find .op point.  (Use ".option noopiter" to skip.)
Starting Gmin stepping
Gmin = 10
Gmin = 1.07374
vernier = 0.5
vernier = 0.25
vernier = 0.125
Gmin = 1.15077
vernier = 0.166667
vernier = 0.0833333
vernier = 0.0416667
vernier = 0.0208333
Gmin = 1.0282
vernier = 0.0104167
vernier = 0.00520833
Gmin = 1.01228
vernier = 0.00260417
vernier = 0.00130208
Gmin = 1.00703
vernier = 0.00173611
vernier = 0.000868055
vernier = 0.000434028
Gmin = 1.00517
vernier = 0.000578703
vernier = 0.000771604
Gmin = 1.00378
vernier = 0.000578703
vernier = 0.000434027
Gmin = 0
Gmin stepping failed

Starting source stepping with srcstepmethod=0
Source Step = 3.0303%
Source Step = 33.3333%
Source Step = 63.6364%
Source Step = 88.6364%
vernier = 0.0625
Source Step = 87.8995%
Source Step = 87.9291%
Source Step = 87.9587%
Source Step = 87.9883%
Source Step = 88.0179%
Source Step = 88.0475%
vernier = 0.00146484
Source Step = 88.0919%
Source Step = 88.1362%
Source Step = 88.1806%
Source Step = 88.225%
Source Step = 88.2694%
vernier = 0.00219727
Source Step = 88.3338%
Source Step = 88.4004%
Source Step = 88.4669%
Source Step = 88.5335%
Source Step = 88.6001%
vernier = 0.0032959
Source Step = 88.6933%
Source Step = 88.7932%
Source Step = 88.8931%
Source Step = 88.993%
Source Step = 89.0928%
vernier = 0.00494385
Source Step = 89.2277%
Source Step = 89.3775%
Source Step = 89.5273%
Source Step = 89.6771%
Source Step = 89.8269%
vernier = 0.00741577
Source Step = 90.0217%
Source Step = 90.1565%
Source Step = 90.2127%
Source Step = 90.2689%
Source Step = 90.325%
Source Step = 90.3812%
Source Step = 90.4374%
Source Step = 90.4936%
Source Step = 90.5498%
Source Step = 90.6059%
Source Step = 90.6621%
Source Step = 90.7183%
Source Step = 90.7745%
Source Step = 90.8307%
Source Step = 90.8869%
Source Step = 90.943%
Source Step = 90.9992%
Source Step = 91.0554%
Source Step = 91.1116%
Source Step = 91.1678%
Source Step = 91.2239%
Source Step = 91.2801%
Source Step = 91.3363%
Source Step = 91.3925%
Source Step = 91.4487%
Source Step = 91.5048%
Source Step = 91.561%
Source Step = 91.6172%
Source Step = 91.6734%
Source Step = 91.7296%
Source Step = 91.7857%
Source Step = 91.8419%
Source Step = 91.8981%
Source Step = 91.9543%
Source Step = 92.0105%
Source Step = 92.0666%
Source Step = 92.1228%
Source Step = 92.179%
Source Step = 92.2352%
Source Step = 92.2914%
Source Step = 92.3475%
Source Step = 92.4037%
Source Step = 92.4599%
Source Step = 92.5161%
Source Step = 92.5723%
Source Step = 92.6284%
Source Step = 92.6846%
Source Step = 92.7408%
Source Step = 92.797%
Source Step = 92.8532%
Source Step = 92.9093%
Source Step = 92.9655%
Source Step = 93.0217%
Source Step = 93.0779%
Source Step = 93.1341%
Source Step = 93.1902%
Source Step = 93.2464%
Source Step = 93.3026%
Source Step = 93.3588%
Source Step = 93.415%
Source Step = 93.4711%
Source Step = 93.5273%
Source Step = 93.5835%
Source Step = 93.6397%
Source Step = 93.6959%
Source Step = 93.752%
Source Step = 93.8082%
Source Step = 93.8644%
Source Step = 93.9206%
Source Step = 93.9768%
Source Step = 94.0329%
Source Step = 94.0891%
Source Step = 94.1453%
Source Step = 94.2015%
Source Step = 94.2577%
Source Step = 94.3138%
Source Step = 94.37%
Source Step = 94.4262%
Source Step = 94.4824%
Source Step = 94.5386%
Source Step = 94.5947%
Source Step = 94.6509%
Source Step = 94.7071%
Source Step = 94.7633%
Source Step = 94.8195%
Source Step = 94.8756%
Source Step = 94.9318%
Source Step = 94.988%
Source Step = 95.0442%
Source Step = 95.1004%
Source Step = 95.1565%
Source Step = 95.2127%
Source Step = 95.2689%
Source Step = 95.3251%
Source Step = 95.3813%
Source Step = 95.4374%
Source Step = 95.4936%
Source Step = 95.5498%
Source Step = 95.606%
Source Step = 95.6622%
Source Step = 95.7183%
Source Step = 95.7745%
Source Step = 95.8307%
Source Step = 95.8869%
Source Step = 95.9431%
Source Step = 95.9992%
Source Step = 96.0554%
Source Step = 96.1116%
Source Step = 96.1678%
Source Step = 96.224%
Source Step = 96.2801%
Source Step = 96.3363%
Source Step = 96.3925%
Source Step = 96.4487%
Source Step = 96.5049%
Source Step = 96.561%
Source Step = 96.6172%
Source Step = 96.6734%
Source Step = 96.7296%
Source Step = 96.7858%
Source Step = 96.8419%
Source Step = 96.8981%
Source Step = 96.9543%
Source Step = 97.0105%
Source Step = 97.0667%
Source Step = 97.1228%
Source Step = 97.179%
Source Step = 97.2352%
Source Step = 97.2914%
Source Step = 97.3476%
Source Step = 97.4037%
Source Step = 97.4599%
Source Step = 97.5161%
Source Step = 97.5723%
Source Step = 97.6285%
Source Step = 97.6846%
Source Step = 97.7408%
Source Step = 97.797%
Source Step = 97.8532%
Source Step = 97.9094%
Source Step = 97.9655%
Source Step = 98.0217%
Source Step = 98.0779%
Source Step = 98.1341%
Source Step = 98.1903%
Source Step = 98.2464%
Source Step = 98.3026%
Starting source stepping with srcstepmethod=1
Source Step = 3.0303%
Source Step = 33.3333%
Source Step = 63.6364%
Source Step = 88.6364%
vernier = 0.0625
Source stepping failed

Pseudo Transient succeeded in finding the operating point at 404.836 ms.
Total elapsed time: 40.633 seconds.

