
**** 07/31/22 02:37:34 ******* PSpice 17.4.0 (Nov 2018) ******* ID# 0 ********

 ** Profile: "SCHEMATIC1-TRANS"  [ C:\Users\a0500607\Desktop\LF444_PSpice\lf444-pspicefiles\schematic1\trans.sim ] 


 ****     CIRCUIT DESCRIPTION


******************************************************************************




** Creating circuit file "trans.cir" 
** WARNING: THIS AUTOMATICALLY GENERATED FILE MAY BE OVERWRITTEN BY SUBSEQUENT SIMULATIONS

*Libraries: 
* Profile Libraries :
* Local Libraries :
.LIB "C:/Users/a0488299/Downloads/snom261 (1)/LF444.lib" 
* From [PSPICE NETLIST] section of C:\cds_spb_home\cdssetup\OrCAD_PSpiceTIPSpice_Install\17.4.0\PSpice.ini file:

ERROR(ORPSIM-16276): Simulation cannot be completed because library C:/Users/a0488299/Downloads/snom261 (1)/LF444.lib 
is not available.
.lib "nom_pspti.lib" 
.lib "nom.lib" 

*Analysis directives: 
.TRAN  0 1m 0 
.OPTIONS ADVCONV
.OPTIONS FILEMODELSEARCH
.PROBE64 V(alias(*)) I(alias(*)) W(alias(*)) D(alias(*)) NOISE(alias(*)) 
.INC "..\SCHEMATIC1.net" 



**** INCLUDING SCHEMATIC1.net ****
* source LF444
X_U1         N00384 N00104 VCC VEE N00104 LF444
V_V1         N00384 0  
+SIN 0 1 1K 0 0 0
V_V2         0 VEE 12
V_V3         VCC 0 12

**** RESUMING trans.cir ****
.END
